---------------------------------------------------------------------------
-------------------------- RIENM Corporation ------------------------------
---------------------------------------------------------------------------

RUNSPEC
-- -------------------------------------------------------------------------

TITLE
RIENM_CORP - CASE 1

DIMENS
21 21 4 /

-- The number of equilibration regions is inferred from the EQLDIMS
-- keyword.
EQLDIMS
/

-- The number of PVTW tables is inferred from the TABDIMS keyword;
-- when no data is included in the keyword the default values are used.
TABDIMS
/

OIL
GAS
WATER
DISGAS


METRIC

START
1 'JAN' 2020 /

WELLDIMS
-- Item 1: maximum number of wells in the model
-- 	   - there are two wells in the problem; injector and producer
-- Item 2: maximum number of grid blocks connected to any one well
-- 	   - must be one as the wells are located at specific grid blocks
-- Item 3: maximum number of groups in the model
-- 	   - we are dealing with only one 'group'
-- Item 4: maximum number of wells in any one group
-- 	   - there must be two wells in a group as there are two wells in total
100 100 100 100 /

UNIFOUT

GRID

-- The INIT keyword is used to request an .INIT file. The .INIT file
-- is written before the simulation actually starts, and contains grid
-- properties and saturation tables as inferred from the input
-- deck. There are no other keywords which can be used to configure
-- exactly what is written to the .INIT file.
INIT


-- -------------------------------------------------------------------------
NOECHO

DX
-- There are in total 300 cells with length 1000ft in x-direction
1764*500 /
DY
-- There are in total 300 cells with length 1000ft in y-direction
1764*500 /
DZ
-- The layers are 20, 30 and 50 ft thick, in each layer there are 100 cells
1764*20 /

TOPS
-- The depth of the top of each grid block
441*8325 /

PORO
-- Constant porosity of 0.3 throughout all 300 grid cells
1764*0.3 /

PERMX
-- The layers have perm. 500mD, 50mD and 200mD, respectively.
1764*100 /

PERMY
-- Equal to PERMX
1764*100 /

PERMZ
-- Cannot find perm. in z-direction in Odeh's paper
-- For the time being, we will assume PERMZ equal to PERMX and PERMY:
1764*10.0 /
ECHO

PROPS
-- -------------------------------------------------------------------------

PVTW
-- Item 1: pressure reference (psia)
-- Item 2: water FVF (rb per bbl or rb per stb)
-- Item 3: water compressibility (psi^{-1})
-- Item 4: water viscosity (cp)
-- Item 5: water 'viscosibility' (psi^{-1})

-- Using values from Norne:
-- In METRIC units:
276.8028774     1.029 4.53969701455712E-005      0.31        1* /
-- In FIELD units:
--    	4017.55 1.038 3.22E-6 0.318 0.0 /

ROCK
-- Item 1: reference pressure (psia)
-- Item 2: rock compressibility (psi^{-1})

-- Using values from table 1 in Odeh:
1.013525604 4.35114729829756E-005
/

SWOF
-- Column 1: water saturation
--   	     - this has been set to (almost) equally spaced values from 0.12 to 1
-- Column 2: water relative permeability
--   	     - generated from the Corey-type approx. formula
--	       the coeffisient is set to 10e-5, S_{orw}=0 and S_{wi}=0.12
-- Column 3: oil relative permeability when only oil and water are present
--	     - we will use the same values as in column 3 in SGOF.
-- 	       This is not really correct, but since only the first
--	       two values are of importance, this does not really matter
-- Column 4: water-oil capillary pressure (psi)

0           0           1           0
0.12           0           1           0
0.121           0           1           0
0.14           0       0.997           0
0.17           0        0.98           0
0.24           0         0.7           0
0.32           0        0.35           0
0.37           0         0.2           0
0.42           0        0.09           0
0.52           0       0.021           0
0.57           0        0.01           0
0.62           0       0.001           0
0.72           0      0.0001           0
0.82           0           0           0
1      1E-005           0           0
/


SGOF
-- Column 1: gas saturation
-- Column 2: gas relative permeability
-- Column 3: oil relative permeability when oil, gas and connate water are present
-- Column 4: oil-gas capillary pressure (psi)
-- 	     - stated to be zero in Odeh's paper

-- Values in column 1-3 are taken from table 3 in Odeh's paper:
0           0           1           0
0.001           0           1           0
0.02           0       0.997           0
0.05       0.005        0.98           0
0.12       0.025         0.7           0
0.2       0.075        0.35           0
0.25       0.125         0.2           0
0.3        0.19        0.09           0
0.4        0.41       0.021           0
0.45         0.6        0.01           0
0.5        0.72       0.001           0
0.6        0.87      0.0001           0
0.7        0.94           0           0
0.85        0.98           0           0
1           1           0           0
/
-- Warning from Eclipse: first sat. value in SWOF + last sat. value in SGOF
-- 	   		 must not be greater than 1, but Eclipse still runs
-- Flow needs the sum to be excactly 1 so I added a row with gas sat. =  0.88
-- The corresponding krg value was estimated by assuming linear rel. between
-- gas sat. and krw. between gas sat. 0.85 and 1.00 (the last two values given)

DENSITY
-- Density (lb per ft³) at surface cond. of
-- oil, water and gas, respectively (in that order)
860 1010 0.9 /
-- Using values from Norne:
-- In METRIC units:
859.5 1033.0 0.854 /
-- In FIELD units:
--      	53.66 64.49 0.0533 /

PVDG
-- Column 1: gas phase pressure (psia)
-- Column 2: gas formation volume factor (rb per Mscf)
-- 	     - in Odeh's paper the units are said to be given in rb per bbl,
-- 	       but this is assumed to be a mistake: FVF-values in Odeh's paper
--	       are given in rb per scf, not rb per bbl. This will be in
--	       agreement with conventions
-- Column 3: gas viscosity (cP)

-- Using values from lower right table in Odeh's table 2:
1.01352580665 0.93575959     0.008
18.250359078 0.067897116    0.0096
35.48719153875 0.035225875    0.0112
69.9608574735 0.017949812     0.014
138.90818529 0.0090619321    0.0189
173.3818583175 0.0072652665    0.0208
207.8555212125 0.0060637464    0.0228
276.802857135 0.0045534244    0.0268
345.750182925 0.0036438624    0.0309
621.5395164825 0.0021672279     0.047
/

PVTO
-- Column 1: dissolved gas-oil ratio (Mscf per stb)
-- Column 2: bubble point pressure (psia)
-- Column 3: oil FVF for saturated oil (rb per stb)
-- Column 4: oil viscosity for saturated oil (cP)

-- Use values from top left table in Odeh's table 2:
0.178108 1.01352580665     1.062      1.04 /
16.118774 18.250359078      1.15     0.975 /
32.05944 35.48719153875     1.207      0.91 /
66.078068 69.9608574735     1.295      0.83 /
113.27669 138.90818529     1.435     0.695 /
138.0337 173.3818583175       1.5     0.641 /
165.64044 207.8555212125     1.565     0.594 /
226.19716 276.802857135     1.695      0.51
621.5395164825     1.579      0.74 /
288.17874 345.750182925     1.827     0.449
621.5395164825     1.726     0.605 /
-- It is required to enter data for undersaturated oil for the highest GOR
-- (i.e. the last row) in the PVTO table.
-- In order to fulfill this requirement, values for oil FVF and viscosity
-- at 9014.7psia and GOR=1.618 for undersaturated oil have been approximated:
-- It has been assumed that there is a linear relation between the GOR
-- and the FVF when keeping the pressure constant at 9014.7psia.
-- From Odeh we know that (at 9014.7psia) the FVF is 2.357 at GOR=2.984
-- for saturated oil and that the FVF is 1.579 at GOR=1.27 for undersaturated oil,
-- so it is possible to use the assumption described above.
-- An equivalent approximation for the viscosity has been used.
/

SOLUTION
-- -------------------------------------------------------------------------

EQUIL
-- Item 1: datum depth (ft)
-- Item 2: pressure at datum depth (psia)
-- 	   - Odeh's table 1 says that initial reservoir pressure is
-- 	     4800 psi at 8400ft, which explains choice of item 1 and 2
-- Item 3: depth of water-oil contact (ft)
-- 	   - chosen to be directly under the reservoir
-- Item 4: oil-water capillary pressure at the water oil contact (psi)
-- 	   - given to be 0 in Odeh's paper
-- Item 5: depth of gas-oil contact (ft)
-- 	   - chosen to be directly above the reservoir
-- Item 6: gas-oil capillary pressure at gas-oil contact (psi)
-- 	   - given to be 0 in Odeh's paper
-- Item 7: RSVD-table
-- Item 8: RVVD-table
-- Item 9: Set to 0 as this is the only value supported by OPM

-- Item #: 1 2    3    4 5    6 7 8 9
--	8400 4800 8450 0 8300 0 1 0 0 /
2510 320  2600       0 2499.36       0       1      1*      1* /

RSVD
-- Dissolved GOR is initially constant with depth through the reservoir.
-- The reason is that the initial reservoir pressure given is higher
---than the bubble point presssure of 4014.7psia, meaning that there is no
-- free gas initially present.
--8300 1.270
--8450 1.270 /
2499.36   226.19716
2590.8   226.19716
/

SUMMARY
-- -------------------------------------------------------------------------
RPTONLY
DATE
FGPR
FGPRF
FGPRS
FGPT
FGPTF
FGPTS
FLPR
FLPT
FOPR
FOPRF
FOPRS
FOPT
FOPTF
FOPTS
FWPR
FWPT
FGIR
FGIT
FOIR
FOIT
FWIR
FWIT
FVPR
FVPT
FVIR
FVIT
FGOR
FWCT
FGSAT
FOSAT
FWSAT
FGPV
FOPV
FWPV
FAQR
FAQT
FNQR
FNQT
FGIP
FGIPG
FGIPL
FOIP
FOIPG
FOIPL
FWIP
FRPV
FHPV
FOE
FOEW
FOEIW
FOEIG
FMWIN
FMWIP
FMWIT
FMWPP
FMWPR
FMWPT
FPR
FOVIS
FRS
RGIP
/
RGIPG
/
RGIPL
/
ROIP
/
ROIPG
/
ROIPL
/
RWIP
/
RHPV
/
RPR
/
RRPV
/
ROE
/
ROEIW
/
ROPR
/
ROPT
/
RWPR
/
RWPT
/
RWIR
/
RWIT
/
RGSAT
/
ROSAT
/
RWSAT
/
RRS
/
GGPR
/
GGPT
/
GLPR
/
GLPT
/
GOPR
/
GOPT
/
GWPR
/
GWPT
/
GGIR
/
GGIT
/
GOIR
/
GOIT
/
GWIR
/
GWIT
/
GGOR
/
GWCT
/
WGPT
/
WGPTF
/
WLPT
/
WOPT
/
WOPTF
/
WOPTS
/
WWPT
/
WVPT
/
WGIT
/
WOIT
/
WWIT
/
WVIT
/
WEFF
/
WGPR
/
WGPRF
/
WLPR
/
WOPR
/
WOPRF
/
WOPRS
/
WWPR
/
WVPR
/
WGIR
/
WOIR
/
WWIR
/
WVIR
/
WGOR
/
WWCT
/
WBHP
/
WBP
/
WBP4
/
WBP5
/
WBP9
/
WTHP
/
WTHT
/
WAPI
/
CGPT
/
CGPTF
/
CLPT

/
COPT
/
COPTS
/
CVPT
/
CWIT
/
CVIT
/
CPR
/
CTFAC
/
FGPRH
FGPTH
FLPRH
FLPTH
FOPRH
FOPTH
FWPRH
FWPTH
FGIRH
FGITH
FOIRH
FOITH
FWIRH
FWITH
FGORH
FWCTH
GGPRH
/
GGPTH
/
GLPRH
/
GLPTH
/
GOPRH
/
GOPTH
/
GWPRH
/
GWPTH
/
GGIRH
/
GGITH
/
GOIRH
/
GOITH
/
GWIRH
/
GWITH
/
GGORH
/
GWCTH
/
WGPRH
/
WGPTH
/
WLPRH
/
WLPTH
/
WOPRH
/
WOPTH
/
WWPRH
/
WWPTH
/
WGIRH
/
WGITH
/
WOIRH
/
WOITH
/
WWIRH
/
WWITH
/
WGORH
/
WWCTH
/
WBHPH
/
WTHPH
/

-- 2a) Pressures of the cell where the injector and producer are located
BPR
1  1  1 /
10 10 3 /
/

-- 2b) Gas saturation at grid points given in Odeh's paper
BGSAT
1  1  1 /
1  1  2 /
1  1  3 /
10 1  1 /
10 1  2 /
10 1  3 /
10 10 1 /
10 10 2 /
10 10 3 /
/

SCHEDULE
-- -------------------------------------------------------------------------
RPTSCHED
'PRES' 'SGAS' 'RS' 'WELLS' /

RPTRST
'BASIC=1' /

-- If no resolution (i.e. case 1), the two following lines must be added:
DRSDT
0 /
-- if DRSDT is set to 0, GOR cannot rise and free gas does not
-- dissolve in undersaturated oil -> constant bubble point pressure

WELSPECS
-- Item #: 1	 2	3	4	5	 6
P1 G1 1 1 8400 OIL /
I1 G1 21 21 8400 WAT /
/
-- Coordinates in item 3-4 are retrieved from Odeh's figure 1 and 2
-- Note that the depth at the midpoint of the well grid blocks
-- has been used as reference depth for bottom hole pressure in item 5

COMPDAT
-- Item #: 1	2	3	4	5	6	7	8	9
P1 1 1 1 2 OPEN	1*	1*	0.5  1* 0 /
I1 21 21 3 4 OPEN	1*	1*	0.5  1* 0 /
/
-- Coordinates in item 2-5 are retreived from Odeh's figure 1 and 2
-- Item 9 is the well bore internal diameter,
-- the radius is given to be 0.25ft in Odeh's paper


WCONPROD
-- Item #:1	2      3     4	   5  9
P1 OPEN ORAT 100 4* 230 /
/
-- It is stated in Odeh's paper that the maximum oil prod. rate
-- is 20 000stb per day which explains the choice of value in item 4.
-- The items > 4 are defaulted with the exception of item  9,
-- the BHP lower limit, which is given to be 1000psia in Odeh's paper

WCONINJE
-- Item #:1	 2	 3	 4	5      6  7
I1 WAT OPEN BHP 400 1* /
/
-- Stated in Odeh that gas inj. rate (item 5) is 100MMscf per day
-- BHP upper limit (item 7) should not be exceeding the highest
-- pressure in the PVT table=9014.7psia (default is 100 000psia)

TSTEP
24*30 /


END
